Version 4
SHEET 1 1016 680
WIRE 0 32 -112 32
WIRE 336 32 240 32
WIRE -112 48 -112 32
WIRE 240 48 240 32
WIRE -112 144 -112 128
WIRE 0 144 -112 144
WIRE -112 160 -112 144
WIRE 656 192 544 192
WIRE 544 224 544 192
WIRE -112 256 -112 240
WIRE 0 256 -112 256
WIRE 400 384 336 384
WIRE 544 384 544 304
WIRE 544 384 496 384
WIRE 32 400 16 400
WIRE 400 432 272 432
WIRE 544 432 496 432
WIRE 16 448 16 400
WIRE -16 464 -32 464
WIRE 128 480 48 480
WIRE -16 496 -64 496
WIRE 544 512 544 432
WIRE 656 512 656 192
WIRE 656 512 544 512
WIRE 272 544 272 528
WIRE 272 544 128 544
WIRE 16 560 16 512
WIRE 32 560 16 560
WIRE 272 560 272 544
WIRE 544 560 544 512
WIRE -32 592 -32 464
WIRE 128 592 128 544
WIRE 128 592 -32 592
FLAG 0 32 V+
IOPIN 0 32 BiDir
FLAG 0 144 0
FLAG 0 256 V-
IOPIN 0 256 BiDir
FLAG 32 400 V+
IOPIN 32 400 In
FLAG 32 560 V-
IOPIN 32 560 In
FLAG 272 640 0
FLAG 336 384 V+
IOPIN 336 384 In
FLAG -64 496 input
IOPIN -64 496 In
FLAG 544 560 0
FLAG 240 128 0
FLAG 336 32 input
IOPIN 336 32 Out
SYMBOL lcr-0203 448 352 R0
SYMATTR InstName X1
SYMBOL npn 208 432 R0
SYMATTR InstName Q1
SYMATTR Value 2N3904
SYMBOL Opamps/LT1058A 16 416 R0
SYMATTR InstName U1
SYMBOL res 224 464 R90
WINDOW 0 0 56 VBottom 2
WINDOW 3 32 56 VTop 2
SYMATTR InstName R1
SYMATTR Value 100
SYMBOL res 256 544 R0
SYMATTR InstName R2
SYMATTR Value 1k
SYMBOL voltage -112 32 R0
SYMATTR InstName V1
SYMATTR Value 25
SYMBOL voltage -112 144 R0
SYMATTR InstName V2
SYMATTR Value 25
SYMBOL voltage 240 32 R0
SYMATTR InstName V3
SYMATTR Value PWL(0 0 200m 20)
SYMBOL current 544 224 R0
SYMATTR InstName I1
SYMATTR Value 1
TEXT 528 24 Left 2 !.tran 200m
